<?xml version="1.0" encoding="UTF-8"?>

<!-- generated on 2025-07-02 13:45:59 by Eclipse SUMO sumo Version 1.23.1
-->

<sumoConfiguration xmlns:xsi="http://www.w3.org/2001/XMLSchema-instance" xsi:noNamespaceSchemaLocation="http://sumo.dlr.de/xsd/sumoConfiguration.xsd">

    <input>
        <net-file value="2cs_new.net.xml"/>
        <additional-files value="2cs_new.taz.xml"/>
    </input>

    <time>
        <begin value="0"/>
        <end value="172800"/>
    </time>

</sumoConfiguration>
