<?xml version="1.0" encoding="UTF-8"?>

<!-- generated on 2025-07-02 13:52:05 by Eclipse SUMO netedit Version 1.23.1
<neteditConfiguration xmlns:xsi="http://www.w3.org/2001/XMLSchema-instance" xsi:noNamespaceSchemaLocation="http://sumo.dlr.de/xsd/neteditConfiguration.xsd">

    <input>
        <sumo-net-file value="D:\fnetdisk\Projects\v2sim-rl\cases\2cs_new\2cs_new.net.xml"/>
    </input>

    <output>
        <output-file value="D:\fnetdisk\Projects\v2sim-rl\cases\2cs_new\2cs_new.net.xml"/>
    </output>

    <processing>
        <geometry.min-radius.fix.railways value="false"/>
        <geometry.avoid-overlap value="false"/>
        <geometry.max-grade.fix value="false"/>
        <offset.disable-normalization value="true"/>
        <lefthand value="0"/>
    </processing>

    <junctions>
        <no-turnarounds value="true"/>
        <junctions.corner-detail value="5"/>
        <junctions.limit-turn-speed value="5.50"/>
        <rectangular-lane-cut value="0"/>
    </junctions>

    <pedestrian>
        <walkingareas value="0"/>
    </pedestrian>

</neteditConfiguration>
-->

<net version="1.20" junctionCornerDetail="5" limitTurnSpeed="5.50" avoidOverlap="0" xmlns:xsi="http://www.w3.org/2001/XMLSchema-instance" xsi:noNamespaceSchemaLocation="http://sumo.dlr.de/xsd/net_file.xsd">

    <location netOffset="0.00,0.00" convBoundary="-155.52,-193.14,333.12,137.33" origBoundary="-10000000000.00,-10000000000.00,10000000000.00,10000000000.00" projParameter="!"/>

    <edge id=":J0_0" function="internal">
        <lane id=":J0_0_0" index="0" speed="6.56" length="9.11" shape="-10.75,18.33 -13.19,18.70 -14.94,19.78 -15.99,21.57 -16.36,24.05"/>
    </edge>
    <edge id=":J0_1" function="internal">
        <lane id=":J0_1_0" index="0" speed="13.89" length="14.41" shape="-10.75,18.33 -25.15,18.47"/>
    </edge>
    <edge id=":J0_2" function="internal">
        <lane id=":J0_2_0" index="0" speed="8.06" length="4.03" shape="-10.75,18.33 -14.58,17.81 -14.73,17.73"/>
    </edge>
    <edge id=":J0_12" function="internal">
        <lane id=":J0_12_0" index="0" speed="8.06" length="10.18" shape="-14.73,17.73 -17.35,16.18 -19.06,13.44 -19.71,9.59"/>
    </edge>
    <edge id=":J0_3" function="internal">
        <lane id=":J0_3_0" index="0" speed="6.57" length="9.12" shape="-16.51,9.51 -16.09,11.98 -15.00,13.75 -13.23,14.80 -10.78,15.13"/>
    </edge>
    <edge id=":J0_4" function="internal">
        <lane id=":J0_4_0" index="0" speed="13.89" length="14.55" shape="-16.51,9.51 -16.36,24.05"/>
    </edge>
    <edge id=":J0_5" function="internal">
        <lane id=":J0_5_0" index="0" speed="7.98" length="4.19" shape="-16.51,9.51 -16.96,13.39 -17.10,13.64"/>
    </edge>
    <edge id=":J0_13" function="internal">
        <lane id=":J0_13_0" index="0" speed="7.98" length="10.06" shape="-17.10,13.64 -18.55,16.18 -21.29,17.88 -25.15,18.47"/>
    </edge>
    <edge id=":J0_6" function="internal">
        <lane id=":J0_6_0" index="0" speed="6.48" length="9.04" shape="-25.19,15.27 -22.74,14.89 -21.01,13.82 -19.99,12.05 -19.71,9.59"/>
    </edge>
    <edge id=":J0_7" function="internal">
        <lane id=":J0_7_0" index="0" speed="13.89" length="14.42" shape="-25.19,15.27 -10.78,15.13"/>
    </edge>
    <edge id=":J0_8" function="internal">
        <lane id=":J0_8_0" index="0" speed="7.97" length="4.09" shape="-25.19,15.27 -21.31,15.78 -21.16,15.87"/>
    </edge>
    <edge id=":J0_14" function="internal">
        <lane id=":J0_14_0" index="0" speed="7.97" length="10.17" shape="-21.16,15.87 -18.54,17.42 -16.89,20.17 -16.36,24.05"/>
    </edge>
    <edge id=":J0_9" function="internal">
        <lane id=":J0_9_0" index="0" speed="6.47" length="9.03" shape="-19.56,24.04 -19.90,21.58 -20.94,19.83 -22.69,18.80 -25.15,18.47"/>
    </edge>
    <edge id=":J0_10" function="internal">
        <lane id=":J0_10_0" index="0" speed="13.89" length="14.45" shape="-19.56,24.04 -19.71,9.59"/>
    </edge>
    <edge id=":J0_11" function="internal">
        <lane id=":J0_11_0" index="0" speed="8.05" length="3.91" shape="-19.56,24.04 -18.99,20.17"/>
    </edge>
    <edge id=":J0_15" function="internal">
        <lane id=":J0_15_0" index="0" speed="8.05" length="10.31" shape="-18.99,20.17 -17.34,17.39 -14.60,15.71 -10.78,15.13"/>
    </edge>
    <edge id=":J1_0" function="internal">
        <lane id=":J1_0_0" index="0" speed="6.50" length="9.03" shape="85.01,23.11 84.66,20.66 83.60,18.92 81.84,17.88 79.39,17.55"/>
    </edge>
    <edge id=":J1_1" function="internal">
        <lane id=":J1_1_0" index="0" speed="13.89" length="14.41" shape="85.01,23.11 84.91,8.70"/>
    </edge>
    <edge id=":J1_2" function="internal">
        <lane id=":J1_2_0" index="0" speed="8.01" length="4.05" shape="85.01,23.11 85.55,19.25 85.63,19.12"/>
    </edge>
    <edge id=":J1_12" function="internal">
        <lane id=":J1_12_0" index="0" speed="8.01" length="10.15" shape="85.63,19.12 87.19,16.49 89.93,14.82 93.77,14.25"/>
    </edge>
    <edge id=":J1_3" function="internal">
        <lane id=":J1_3_0" index="0" speed="6.52" length="9.05" shape="93.79,17.45 91.34,17.81 89.60,18.88 88.56,20.64 88.21,23.10"/>
    </edge>
    <edge id=":J1_4" function="internal">
        <lane id=":J1_4_0" index="0" speed="13.89" length="14.40" shape="93.79,17.45 79.39,17.55"/>
    </edge>
    <edge id=":J1_5" function="internal">
        <lane id=":J1_5_0" index="0" speed="8.02" length="4.05" shape="93.79,17.45 89.94,16.92 89.80,16.84"/>
    </edge>
    <edge id=":J1_13" function="internal">
        <lane id=":J1_13_0" index="0" speed="8.02" length="10.15" shape="89.80,16.84 87.18,15.29 85.50,12.55 84.91,8.70"/>
    </edge>
    <edge id=":J1_6" function="internal">
        <lane id=":J1_6_0" index="0" speed="6.53" length="9.06" shape="88.11,8.67 88.49,11.12 89.56,12.87 91.32,13.91 93.77,14.25"/>
    </edge>
    <edge id=":J1_7" function="internal">
        <lane id=":J1_7_0" index="0" speed="13.89" length="14.44" shape="88.11,8.67 88.21,23.10"/>
    </edge>
    <edge id=":J1_8" function="internal">
        <lane id=":J1_8_0" index="0" speed="8.00" length="4.09" shape="88.11,8.67 87.60,12.53 87.50,12.70"/>
    </edge>
    <edge id=":J1_14" function="internal">
        <lane id=":J1_14_0" index="0" speed="8.00" length="10.11" shape="87.50,12.70 85.98,15.29 83.24,16.97 79.39,17.55"/>
    </edge>
    <edge id=":J1_9" function="internal">
        <lane id=":J1_9_0" index="0" speed="6.51" length="9.04" shape="79.36,14.35 81.81,13.98 83.55,12.92 84.59,11.16 84.91,8.70"/>
    </edge>
    <edge id=":J1_10" function="internal">
        <lane id=":J1_10_0" index="0" speed="13.89" length="14.41" shape="79.36,14.35 93.77,14.25"/>
    </edge>
    <edge id=":J1_11" function="internal">
        <lane id=":J1_11_0" index="0" speed="7.99" length="4.08" shape="79.36,14.35 83.22,14.87 83.38,14.96"/>
    </edge>
    <edge id=":J1_15" function="internal">
        <lane id=":J1_15_0" index="0" speed="7.99" length="10.13" shape="83.38,14.96 85.99,16.50 87.65,19.25 88.21,23.10"/>
    </edge>
    <edge id=":J10_0" function="internal">
        <lane id=":J10_0_0" index="0" speed="13.89" length="14.69" shape="-11.18,116.66 -25.87,116.22"/>
    </edge>
    <edge id=":J10_1" function="internal">
        <lane id=":J10_1_0" index="0" speed="8.03" length="4.29" shape="-11.18,116.66 -15.04,116.10 -15.37,115.90"/>
    </edge>
    <edge id=":J10_6" function="internal">
        <lane id=":J10_6_0" index="0" speed="8.03" length="10.06" shape="-15.37,115.90 -17.79,114.42 -19.43,111.61 -19.96,107.68"/>
    </edge>
    <edge id=":J10_2" function="internal">
        <lane id=":J10_2_0" index="0" speed="6.54" length="9.16" shape="-16.76,107.70 -16.43,110.22 -15.38,112.02 -13.63,113.10 -11.18,113.46"/>
    </edge>
    <edge id=":J10_3" function="internal">
        <lane id=":J10_3_0" index="0" speed="7.90" length="14.41" shape="-16.76,107.70 -17.35,111.63 -19.06,114.36 -21.90,115.89 -25.87,116.22"/>
    </edge>
    <edge id=":J10_4" function="internal">
        <lane id=":J10_4_0" index="0" speed="6.39" length="9.04" shape="-25.67,113.03 -23.19,112.82 -21.41,111.86 -20.33,110.15 -19.96,107.68"/>
    </edge>
    <edge id=":J10_5" function="internal">
        <lane id=":J10_5_0" index="0" speed="13.89" length="14.50" shape="-25.67,113.03 -11.18,113.46"/>
    </edge>
    <edge id=":J11_0" function="internal">
        <lane id=":J11_0_0" index="0" speed="6.08" length="7.54" shape="305.45,110.36 305.08,112.38 304.16,113.83 302.68,114.69 300.64,114.97"/>
    </edge>
    <edge id=":J11_1" function="internal">
        <lane id=":J11_1_0" index="0" speed="3.91" length="2.51" shape="300.65,111.77 301.33,111.67 301.82,111.39 302.13,110.91 302.26,110.23"/>
    </edge>
    <edge id=":J12_0" function="internal">
        <lane id=":J12_0_0" index="0" speed="6.41" length="9.04" shape="211.64,-172.23 211.26,-174.69 210.18,-176.41 208.40,-177.37 205.92,-177.59"/>
    </edge>
    <edge id=":J12_1" function="internal">
        <lane id=":J12_1_0" index="0" speed="7.98" length="14.34" shape="211.64,-172.23 212.16,-176.15 213.80,-178.94 216.57,-180.59 220.45,-181.11"/>
    </edge>
    <edge id=":J12_2" function="internal">
        <lane id=":J12_2_0" index="0" speed="6.48" length="9.10" shape="220.42,-177.91 217.96,-177.58 216.21,-176.53 215.17,-174.75 214.84,-172.26"/>
    </edge>
    <edge id=":J12_3" function="internal">
        <lane id=":J12_3_0" index="0" speed="13.89" length="14.50" shape="220.42,-177.91 205.92,-177.59"/>
    </edge>
    <edge id=":J12_4" function="internal">
        <lane id=":J12_4_0" index="0" speed="13.89" length="14.71" shape="205.75,-180.79 220.45,-181.11"/>
    </edge>
    <edge id=":J12_5" function="internal">
        <lane id=":J12_5_0" index="0" speed="7.92" length="4.36" shape="205.75,-180.79 209.69,-180.44 210.04,-180.25"/>
    </edge>
    <edge id=":J12_6" function="internal">
        <lane id=":J12_6_0" index="0" speed="7.92" length="10.01" shape="210.04,-180.25 212.52,-178.90 214.24,-176.17 214.84,-172.26"/>
    </edge>
    <edge id=":J13_0" function="internal">
        <lane id=":J13_0_0" index="0" speed="6.69" length="9.24" shape="321.44,-176.92 319.01,-176.54 317.23,-175.45 316.12,-173.64 315.67,-171.11"/>
    </edge>
    <edge id=":J13_1" function="internal">
        <lane id=":J13_1_0" index="0" speed="13.89" length="14.38" shape="321.44,-176.92 307.06,-176.95"/>
    </edge>
    <edge id=":J13_2" function="internal">
        <lane id=":J13_2_0" index="0" speed="13.89" length="14.32" shape="307.10,-180.15 321.42,-180.12"/>
    </edge>
    <edge id=":J13_3" function="internal">
        <lane id=":J13_3_0" index="0" speed="7.95" length="3.94" shape="307.10,-180.15 310.99,-179.55"/>
    </edge>
    <edge id=":J13_6" function="internal">
        <lane id=":J13_6_0" index="0" speed="7.95" length="10.37" shape="310.99,-179.55 313.72,-177.84 315.28,-175.03 315.67,-171.11"/>
    </edge>
    <edge id=":J13_4" function="internal">
        <lane id=":J13_4_0" index="0" speed="6.44" length="9.03" shape="312.47,-171.24 312.22,-173.72 311.24,-175.49 309.52,-176.57 307.06,-176.95"/>
    </edge>
    <edge id=":J13_5" function="internal">
        <lane id=":J13_5_0" index="0" speed="8.15" length="14.22" shape="312.47,-171.24 313.17,-175.10 314.90,-177.87 317.64,-179.54 321.42,-180.12"/>
    </edge>
    <edge id=":J14_0" function="internal">
        <lane id=":J14_0_0" index="0" speed="6.89" length="9.67" shape="97.24,-171.66 94.67,-171.16 92.82,-169.95 91.68,-168.05 91.26,-165.46"/>
    </edge>
    <edge id=":J14_1" function="internal">
        <lane id=":J14_1_0" index="0" speed="13.89" length="14.76" shape="97.24,-171.66 82.50,-171.03"/>
    </edge>
    <edge id=":J14_2" function="internal">
        <lane id=":J14_2_0" index="0" speed="7.92" length="4.19" shape="97.24,-171.66 93.29,-172.01 93.09,-172.12"/>
    </edge>
    <edge id=":J14_12" function="internal">
        <lane id=":J14_12_0" index="0" speed="7.92" length="10.18" shape="93.09,-172.12 90.46,-173.55 88.74,-176.28 88.15,-180.20"/>
    </edge>
    <edge id=":J14_3" function="internal">
        <lane id=":J14_3_0" index="0" speed="6.41" length="9.04" shape="91.35,-180.22 91.72,-177.76 92.80,-176.05 94.58,-175.08 97.06,-174.86"/>
    </edge>
    <edge id=":J14_4" function="internal">
        <lane id=":J14_4_0" index="0" speed="13.89" length="14.76" shape="91.35,-180.22 91.26,-165.46"/>
    </edge>
    <edge id=":J14_5" function="internal">
        <lane id=":J14_5_0" index="0" speed="8.15" length="4.23" shape="91.35,-180.22 90.82,-176.31 90.68,-176.07"/>
    </edge>
    <edge id=":J14_13" function="internal">
        <lane id=":J14_13_0" index="0" speed="8.15" length="10.25" shape="90.68,-176.07 89.17,-173.47 86.40,-171.71 82.50,-171.03"/>
    </edge>
    <edge id=":J14_6" function="internal">
        <lane id=":J14_6_0" index="0" speed="6.68" length="9.41" shape="82.39,-174.23 84.93,-174.67 86.73,-175.81 87.81,-177.65 88.15,-180.20"/>
    </edge>
    <edge id=":J14_7" function="internal">
        <lane id=":J14_7_0" index="0" speed="13.89" length="14.68" shape="82.39,-174.23 97.06,-174.86"/>
    </edge>
    <edge id=":J14_8" function="internal">
        <lane id=":J14_8_0" index="0" speed="7.91" length="3.97" shape="82.39,-174.23 86.34,-173.79"/>
    </edge>
    <edge id=":J14_14" function="internal">
        <lane id=":J14_14_0" index="0" speed="7.91" length="10.42" shape="86.34,-173.79 89.14,-172.18 90.78,-169.40 91.26,-165.46"/>
    </edge>
    <edge id=":J14_9" function="internal">
        <lane id=":J14_9_0" index="0" speed="6.40" length="9.04" shape="88.07,-165.52 87.76,-168.00 86.73,-169.74 84.97,-170.75 82.50,-171.03"/>
    </edge>
    <edge id=":J14_10" function="internal">
        <lane id=":J14_10_0" index="0" speed="13.89" length="14.67" shape="88.07,-165.52 88.15,-180.20"/>
    </edge>
    <edge id=":J14_11" function="internal">
        <lane id=":J14_11_0" index="0" speed="8.32" length="3.95" shape="88.07,-165.52 88.69,-169.43"/>
    </edge>
    <edge id=":J14_15" function="internal">
        <lane id=":J14_15_0" index="0" speed="8.32" length="10.60" shape="88.69,-169.43 90.40,-172.28 93.19,-174.09 97.06,-174.86"/>
    </edge>
    <edge id=":J15_0" function="internal">
        <lane id=":J15_0_0" index="0" speed="6.51" length="8.71" shape="-9.26,-168.12 -11.60,-167.71 -13.28,-166.66 -14.31,-164.96 -14.69,-162.62"/>
    </edge>
    <edge id=":J15_1" function="internal">
        <lane id=":J15_1_0" index="0" speed="13.89" length="13.83" shape="-9.26,-168.12 -12.83,-168.04 -16.18,-168.07 -19.53,-168.19 -23.09,-168.42"/>
    </edge>
    <edge id=":J15_2" function="internal">
        <lane id=":J15_2_0" index="0" speed="13.89" length="13.49" shape="-22.85,-171.61 -19.34,-171.38 -16.11,-171.26 -12.88,-171.24 -9.37,-171.32"/>
    </edge>
    <edge id=":J15_3" function="internal">
        <lane id=":J15_3_0" index="0" speed="8.03" length="3.87" shape="-22.85,-171.61 -19.22,-170.81 -19.09,-170.72"/>
    </edge>
    <edge id=":J15_6" function="internal">
        <lane id=":J15_6_0" index="0" speed="8.03" length="9.80" shape="-19.09,-170.72 -16.65,-169.05 -15.14,-166.32 -14.69,-162.62"/>
    </edge>
    <edge id=":J15_4" function="internal">
        <lane id=":J15_4_0" index="0" speed="6.53" length="8.72" shape="-17.89,-162.68 -18.17,-165.04 -19.14,-166.78 -20.78,-167.91 -23.09,-168.42"/>
    </edge>
    <edge id=":J15_5" function="internal">
        <lane id=":J15_5_0" index="0" speed="8.01" length="13.68" shape="-17.89,-162.68 -17.30,-166.36 -15.68,-169.03 -13.04,-170.68 -9.37,-171.32"/>
    </edge>
    <edge id=":J16_0" function="internal">
        <lane id=":J16_0_0" index="0" speed="6.51" length="8.86" shape="-83.81,19.16 -86.20,19.53 -87.92,20.57 -88.97,22.29 -89.34,24.68"/>
    </edge>
    <edge id=":J16_1" function="internal">
        <lane id=":J16_1_0" index="0" speed="10.85" length="13.06" shape="-83.81,19.16 -87.46,18.90 -90.63,18.03 -93.32,16.54 -95.52,14.45"/>
    </edge>
    <edge id=":J16_2" function="internal">
        <lane id=":J16_2_0" index="0" speed="9.63" length="10.19" shape="-93.05,12.42 -91.36,14.00 -89.27,15.11 -86.76,15.76 -83.85,15.96"/>
    </edge>
    <edge id=":J16_3" function="internal">
        <lane id=":J16_3_0" index="0" speed="12.99" length="13.11" shape="-93.05,12.42 -91.12,15.27 -89.98,18.12 -89.44,21.20 -89.34,24.68"/>
    </edge>
    <edge id=":J16_4" function="internal">
        <lane id=":J16_4_0" index="0" speed="11.90" length="10.96" shape="-92.54,24.63 -92.53,21.47 -92.82,19.12 -93.71,16.97 -95.52,14.45"/>
    </edge>
    <edge id=":J16_5" function="internal">
        <lane id=":J16_5_0" index="0" speed="8.01" length="3.65" shape="-92.54,24.63 -91.97,21.02"/>
    </edge>
    <edge id=":J16_6" function="internal">
        <lane id=":J16_6_0" index="0" speed="8.01" length="10.27" shape="-91.97,21.02 -91.95,20.87 -90.31,18.18 -87.60,16.54 -83.85,15.96"/>
    </edge>
    <edge id=":J17_0" function="internal">
        <lane id=":J17_0_0" index="0" speed="8.38" length="7.86" shape="-127.74,-24.88 -129.26,-26.44 -130.89,-27.53 -132.64,-28.16 -134.49,-28.33"/>
    </edge>
    <edge id=":J17_1" function="internal">
        <lane id=":J17_1_0" index="0" speed="8.11" length="3.03" shape="-127.74,-24.88 -129.34,-27.46"/>
    </edge>
    <edge id=":J17_6" function="internal">
        <lane id=":J17_6_0" index="0" speed="8.11" length="8.41" shape="-129.34,-27.46 -129.95,-30.08 -129.56,-32.74 -128.19,-35.44"/>
    </edge>
    <edge id=":J17_2" function="internal">
        <lane id=":J17_2_0" index="0" speed="6.59" length="7.28" shape="-125.55,-33.63 -126.42,-31.91 -126.67,-30.22 -126.28,-28.55 -125.27,-26.91"/>
    </edge>
    <edge id=":J17_3" function="internal">
        <lane id=":J17_3_0" index="0" speed="9.62" length="10.80" shape="-125.55,-33.63 -127.43,-31.38 -129.54,-29.74 -131.90,-28.73 -134.49,-28.33"/>
    </edge>
    <edge id=":J17_4" function="internal">
        <lane id=":J17_4_0" index="0" speed="8.26" length="7.80" shape="-134.60,-31.52 -132.77,-31.82 -131.09,-32.57 -129.56,-33.78 -128.19,-35.44"/>
    </edge>
    <edge id=":J17_5" function="internal">
        <lane id=":J17_5_0" index="0" speed="9.74" length="10.80" shape="-134.60,-31.52 -131.99,-31.30 -129.56,-30.46 -127.32,-29.00 -125.27,-26.91"/>
    </edge>
    <edge id=":J18_0" function="internal">
        <lane id=":J18_0_0" index="0" speed="3.65" length="4.67" shape="-155.47,-27.62 -156.69,-28.38 -157.12,-29.17 -156.75,-29.98 -155.57,-30.82"/>
    </edge>
    <edge id=":J19_0" function="internal">
        <lane id=":J19_0_0" index="0" speed="9.52" length="10.49" shape="-80.90,-89.40 -83.91,-89.05 -86.45,-88.23 -88.51,-86.95 -90.11,-85.20"/>
    </edge>
    <edge id=":J19_1" function="internal">
        <lane id=":J19_1_0" index="0" speed="7.95" length="14.31" shape="-80.90,-89.40 -84.81,-89.81 -87.62,-91.39 -89.32,-94.12 -89.90,-98.01"/>
    </edge>
    <edge id=":J19_2" function="internal">
        <lane id=":J19_2_0" index="0" speed="6.44" length="9.03" shape="-86.70,-98.04 -86.33,-95.58 -85.26,-93.85 -83.49,-92.86 -81.02,-92.60"/>
    </edge>
    <edge id=":J19_3" function="internal">
        <lane id=":J19_3_0" index="0" speed="13.89" length="13.51" shape="-86.70,-98.04 -86.82,-94.50 -87.33,-91.29 -88.38,-88.24 -90.11,-85.20"/>
    </edge>
    <edge id=":J19_4" function="internal">
        <lane id=":J19_4_0" index="0" speed="13.72" length="11.62" shape="-92.75,-87.01 -91.10,-89.77 -90.25,-92.18 -89.93,-94.77 -89.90,-98.01"/>
    </edge>
    <edge id=":J19_5" function="internal">
        <lane id=":J19_5_0" index="0" speed="10.72" length="3.13" shape="-92.75,-87.01 -90.65,-89.34"/>
    </edge>
    <edge id=":J19_6" function="internal">
        <lane id=":J19_6_0" index="0" speed="10.72" length="10.34" shape="-90.65,-89.34 -88.00,-91.05 -84.79,-92.14 -81.02,-92.60"/>
    </edge>
    <edge id=":J2_0" function="internal">
        <lane id=":J2_0_0" index="0" speed="6.71" length="9.39" shape="216.02,16.73 213.49,17.12 211.66,18.22 210.54,20.03 210.11,22.56"/>
    </edge>
    <edge id=":J2_1" function="internal">
        <lane id=":J2_1_0" index="0" speed="13.89" length="14.61" shape="216.02,16.73 201.41,16.85"/>
    </edge>
    <edge id=":J2_2" function="internal">
        <lane id=":J2_2_0" index="0" speed="7.95" length="4.11" shape="216.02,16.73 212.12,16.22 211.97,16.13"/>
    </edge>
    <edge id=":J2_12" function="internal">
        <lane id=":J2_12_0" index="0" speed="7.95" length="10.19" shape="211.97,16.13 209.35,14.57 207.73,11.80 207.24,7.89"/>
    </edge>
    <edge id=":J2_3" function="internal">
        <lane id=":J2_3_0" index="0" speed="6.45" length="9.03" shape="210.44,7.95 210.75,10.41 211.78,12.17 213.52,13.21 215.98,13.54"/>
    </edge>
    <edge id=":J2_4" function="internal">
        <lane id=":J2_4_0" index="0" speed="13.89" length="14.62" shape="210.44,7.95 210.11,22.56"/>
    </edge>
    <edge id=":J2_5" function="internal">
        <lane id=":J2_5_0" index="0" speed="8.12" length="4.14" shape="210.44,7.95 209.82,11.82 209.70,12.01"/>
    </edge>
    <edge id=":J2_13" function="internal">
        <lane id=":J2_13_0" index="0" speed="8.12" length="10.25" shape="209.70,12.01 208.10,14.60 205.30,16.28 201.41,16.85"/>
    </edge>
    <edge id=":J2_6" function="internal">
        <lane id=":J2_6_0" index="0" speed="6.65" length="9.31" shape="201.39,13.65 203.91,13.28 205.73,12.20 206.84,10.40 207.24,7.89"/>
    </edge>
    <edge id=":J2_7" function="internal">
        <lane id=":J2_7_0" index="0" speed="13.89" length="14.59" shape="201.39,13.65 215.98,13.54"/>
    </edge>
    <edge id=":J2_8" function="internal">
        <lane id=":J2_8_0" index="0" speed="7.94" length="4.08" shape="201.39,13.65 205.30,14.19 205.41,14.26"/>
    </edge>
    <edge id=":J2_14" function="internal">
        <lane id=":J2_14_0" index="0" speed="7.94" length="10.25" shape="205.41,14.26 208.05,15.85 209.65,18.64 210.11,22.56"/>
    </edge>
    <edge id=":J2_9" function="internal">
        <lane id=":J2_9_0" index="0" speed="6.44" length="9.03" shape="206.91,22.47 206.62,20.00 205.61,18.24 203.87,17.19 201.41,16.85"/>
    </edge>
    <edge id=":J2_10" function="internal">
        <lane id=":J2_10_0" index="0" speed="13.89" length="14.58" shape="206.91,22.47 207.24,7.89"/>
    </edge>
    <edge id=":J2_11" function="internal">
        <lane id=":J2_11_0" index="0" speed="8.17" length="4.08" shape="206.91,22.47 207.57,18.60 207.64,18.47"/>
    </edge>
    <edge id=":J2_15" function="internal">
        <lane id=":J2_15_0" index="0" speed="8.17" length="10.33" shape="207.64,18.47 209.30,15.81 212.11,14.13 215.98,13.54"/>
    </edge>
    <edge id=":J20_0" function="internal">
        <lane id=":J20_0_0" index="0" speed="6.54" length="9.11" shape="263.60,114.83 261.11,115.17 259.32,116.21 258.24,117.96 257.88,120.40"/>
    </edge>
    <edge id=":J20_1" function="internal">
        <lane id=":J20_1_0" index="0" speed="13.89" length="14.49" shape="263.60,114.83 249.12,114.71"/>
    </edge>
    <edge id=":J20_2" function="internal">
        <lane id=":J20_2_0" index="0" speed="7.95" length="4.12" shape="263.60,114.83 259.71,114.25 259.55,114.16"/>
    </edge>
    <edge id=":J20_12" function="internal">
        <lane id=":J20_12_0" index="0" speed="7.95" length="10.18" shape="259.55,114.16 256.97,112.57 255.38,109.77 254.96,105.85"/>
    </edge>
    <edge id=":J20_3" function="internal">
        <lane id=":J20_3_0" index="0" speed="6.44" length="9.03" shape="258.15,105.96 258.42,108.43 259.42,110.20 261.15,111.27 263.61,111.63"/>
    </edge>
    <edge id=":J20_4" function="internal">
        <lane id=":J20_4_0" index="0" speed="13.89" length="14.45" shape="258.15,105.96 257.88,120.40"/>
    </edge>
    <edge id=":J20_5" function="internal">
        <lane id=":J20_5_0" index="0" speed="8.09" length="14.28" shape="258.15,105.96 257.48,109.83 255.75,112.58 252.96,114.20 249.12,114.71"/>
    </edge>
    <edge id=":J20_6" function="internal">
        <lane id=":J20_6_0" index="0" speed="6.61" length="9.20" shape="249.16,111.51 251.62,111.18 253.41,110.13 254.52,108.35 254.96,105.85"/>
    </edge>
    <edge id=":J20_7" function="internal">
        <lane id=":J20_7_0" index="0" speed="13.89" length="14.46" shape="249.16,111.51 263.61,111.63"/>
    </edge>
    <edge id=":J20_8" function="internal">
        <lane id=":J20_8_0" index="0" speed="8.02" length="4.02" shape="249.16,111.51 252.99,112.11 253.11,112.18"/>
    </edge>
    <edge id=":J20_13" function="internal">
        <lane id=":J20_13_0" index="0" speed="8.02" length="10.16" shape="253.11,112.18 255.72,113.79 257.35,116.55 257.88,120.40"/>
    </edge>
    <edge id=":J20_9" function="internal">
        <lane id=":J20_9_0" index="0" speed="6.53" length="9.05" shape="254.68,120.39 254.34,117.93 253.30,116.16 251.56,115.09 249.12,114.71"/>
    </edge>
    <edge id=":J20_10" function="internal">
        <lane id=":J20_10_0" index="0" speed="13.89" length="14.54" shape="254.68,120.39 254.96,105.85"/>
    </edge>
    <edge id=":J20_11" function="internal">
        <lane id=":J20_11_0" index="0" speed="8.02" length="14.27" shape="254.68,120.39 255.25,116.54 256.93,113.80 259.72,112.16 263.61,111.63"/>
    </edge>
    <edge id=":J21_0" function="internal">
        <lane id=":J21_0_0" index="0" speed="3.65" length="4.67" shape="255.25,97.09 256.09,95.91 256.90,95.54 257.69,95.97 258.45,97.19"/>
    </edge>
    <edge id=":J22_0" function="internal">
        <lane id=":J22_0_0" index="0" speed="3.65" length="4.67" shape="-89.47,33.49 -90.29,34.68 -91.09,35.07 -91.89,34.66 -92.67,33.45"/>
    </edge>
    <edge id=":J23_0" function="internal">
        <lane id=":J23_0_0" index="0" speed="3.65" length="4.67" shape="-89.97,-106.89 -89.18,-108.09 -88.38,-108.50 -87.58,-108.11 -86.77,-106.91"/>
    </edge>
    <edge id=":J24_0" function="internal">
        <lane id=":J24_0_0" index="0" speed="6.67" length="9.32" shape="220.64,-134.57 218.19,-134.25 216.40,-133.18 215.26,-131.36 214.78,-128.79"/>
    </edge>
    <edge id=":J24_1" function="internal">
        <lane id=":J24_1_0" index="0" speed="13.89" length="14.48" shape="220.64,-134.57 206.16,-134.56"/>
    </edge>
    <edge id=":J24_2" function="internal">
        <lane id=":J24_2_0" index="0" speed="8.07" length="3.84" shape="220.64,-134.57 216.85,-135.19"/>
    </edge>
    <edge id=":J24_12" function="internal">
        <lane id=":J24_12_0" index="0" speed="8.07" length="10.28" shape="216.85,-135.19 214.13,-136.88 212.48,-139.63 211.90,-143.46"/>
    </edge>
    <edge id=":J24_3" function="internal">
        <lane id=":J24_3_0" index="0" speed="6.59" length="9.08" shape="215.10,-143.49 215.47,-141.03 216.53,-139.25 218.28,-138.17 220.71,-137.77"/>
    </edge>
    <edge id=":J24_4" function="internal">
        <lane id=":J24_4_0" index="0" speed="13.89" length="14.70" shape="215.10,-143.49 214.78,-128.79"/>
    </edge>
    <edge id=":J24_5" function="internal">
        <lane id=":J24_5_0" index="0" speed="8.08" length="14.38" shape="215.10,-143.49 214.58,-139.65 212.91,-136.88 210.10,-135.19 206.16,-134.56"/>
    </edge>
    <edge id=":J24_6" function="internal">
        <lane id=":J24_6_0" index="0" speed="6.61" length="9.26" shape="206.10,-137.76 208.66,-138.16 210.48,-139.24 211.56,-141.01 211.90,-143.46"/>
    </edge>
    <edge id=":J24_7" function="internal">
        <lane id=":J24_7_0" index="0" speed="13.89" length="14.61" shape="206.10,-137.76 220.71,-137.77"/>
    </edge>
    <edge id=":J24_8" function="internal">
        <lane id=":J24_8_0" index="0" speed="7.88" length="4.28" shape="206.10,-137.76 210.07,-137.27 210.31,-137.13"/>
    </edge>
    <edge id=":J24_13" function="internal">
        <lane id=":J24_13_0" index="0" speed="7.88" length="10.20" shape="210.31,-137.13 212.85,-135.61 214.42,-132.79 214.78,-128.79"/>
    </edge>
    <edge id=":J24_9" function="internal">
        <lane id=":J24_9_0" index="0" speed="6.35" length="9.04" shape="211.58,-128.96 211.36,-131.45 210.38,-133.22 208.65,-134.25 206.16,-134.56"/>
    </edge>
    <edge id=":J24_10" function="internal">
        <lane id=":J24_10_0" index="0" speed="13.89" length="14.50" shape="211.58,-128.96 211.90,-143.46"/>
    </edge>
    <edge id=":J24_11" function="internal">
        <lane id=":J24_11_0" index="0" speed="8.14" length="14.36" shape="211.58,-128.96 212.33,-132.88 214.10,-135.65 216.89,-137.28 220.71,-137.77"/>
    </edge>
    <edge id=":J25_0" function="internal">
        <lane id=":J25_0_0" index="0" speed="3.65" length="4.67" shape="231.48,-137.55 232.67,-136.73 233.05,-135.92 232.63,-135.13 231.42,-134.35"/>
    </edge>
    <edge id=":J26_0" function="internal">
        <lane id=":J26_0_0" index="0" speed="3.65" length="4.67" shape="333.10,12.33 334.31,13.12 334.72,13.91 334.33,14.72 333.14,15.53"/>
    </edge>
    <edge id=":J27_0" function="internal">
        <lane id=":J27_0_0" index="0" speed="3.65" length="4.67" shape="329.61,-95.71 330.80,-94.89 331.19,-94.09 330.78,-93.29 329.57,-92.51"/>
    </edge>
    <edge id=":J28_0" function="internal">
        <lane id=":J28_0_0" index="0" speed="3.65" length="4.67" shape="332.36,-180.19 333.56,-179.40 333.97,-178.60 333.58,-177.80 332.38,-176.99"/>
    </edge>
    <edge id=":J29_0" function="internal">
        <lane id=":J29_0_0" index="0" speed="3.65" length="4.67" shape="257.81,134.21 257.00,135.40 256.20,135.80 255.40,135.40 254.61,134.19"/>
    </edge>
    <edge id=":J3_0" function="internal">
        <lane id=":J3_0_0" index="0" speed="6.79" length="9.53" shape="315.11,15.71 312.56,16.11 310.70,17.22 309.54,19.06 309.07,21.62"/>
    </edge>
    <edge id=":J3_1" function="internal">
        <lane id=":J3_1_0" index="0" speed="13.89" length="14.69" shape="315.11,15.71 300.42,15.87"/>
    </edge>
    <edge id=":J3_2" function="internal">
        <lane id=":J3_2_0" index="0" speed="7.93" length="4.10" shape="315.11,15.71 311.20,15.19 311.07,15.12"/>
    </edge>
    <edge id=":J3_12" function="internal">